clock {
	timestamp '2000-01-01 0:00:00';
	timezone EST+5EDT;
}

module powerflow {
    solver_method FBS;
};
module tape;
#set profiler=1;
#set relax_naming_rules=1;
